*SPEF "ieee 1481-1999"
*DESIGN "fourbit_adder"
*DATE "11:11:11 Fri 11 11, 1111"
*VENDOR "OpenRCX"
*PROGRAM "Parallel Extraction"
*VERSION "1.0"
*DESIGN_FLOW "NAME_SCOPE LOCAL" "PIN_CAP NONE"
*DIVIDER /
*DELIMITER :
*BUS_DELIMITER []
*T_UNIT 1 NS
*C_UNIT 1 PF
*R_UNIT 1 OHM
*L_UNIT 1 HENRY

*NAME_MAP
*1 a[0]
*2 a[1]
*3 a[2]
*4 a[3]
*5 b[0]
*6 b[1]
*7 b[2]
*8 b[3]
*9 clk
*10 net17
*11 net18
*12 net19
*13 net20
*14 net21
*15 net22
*16 net23
*17 net24
*18 net13
*19 net14
*20 net15
*21 net16
*24 y[0]
*25 y[1]
*26 y[2]
*27 y[3]
*28 _00_
*29 _01_
*30 _02_
*31 _03_
*32 _04_
*33 _05_
*34 _06_
*35 _07_
*36 _08_
*37 _09_
*38 _10_
*39 _11_
*40 _12_
*41 _13_
*42 _14_
*43 clknet_0_clk
*44 clknet_1_0_0_clk
*45 clknet_1_1_0_clk
*46 net1
*47 net10
*48 net11
*49 net12
*50 net2
*51 net3
*52 net4
*53 net5
*54 net6
*55 net7
*56 net8
*57 net9
*58 ANTENNA__15__A
*59 ANTENNA__15__B
*60 ANTENNA__16__A
*61 ANTENNA__16__B
*62 ANTENNA__18__A
*63 ANTENNA__18__B
*64 ANTENNA__19__A1
*65 ANTENNA__19__A2
*66 ANTENNA__20__A
*67 ANTENNA__20__B
*68 ANTENNA__21__A
*69 ANTENNA__21__B
*70 ANTENNA__25__A
*71 ANTENNA__25__B
*72 ANTENNA__27__A
*73 ANTENNA__27__B
*74 ANTENNA_clkbuf_0_clk_A
*75 ANTENNA_input1_A
*76 ANTENNA_input2_A
*77 ANTENNA_input3_A
*78 ANTENNA_input4_A
*79 ANTENNA_input5_A
*80 ANTENNA_input6_A
*81 ANTENNA_input7_A
*82 ANTENNA_input8_A
*83 ANTENNA_output10_A
*84 ANTENNA_output11_A
*85 ANTENNA_output12_A
*86 ANTENNA_output9_A
*87 FILLER_0_1005
*88 FILLER_0_1009
*89 FILLER_0_1021
*90 FILLER_0_1033
*91 FILLER_0_1037
*92 FILLER_0_1049
*93 FILLER_0_1061
*94 FILLER_0_1065
*95 FILLER_0_1077
*96 FILLER_0_1089
*97 FILLER_0_109
*98 FILLER_0_1093
*99 FILLER_0_1105
*100 FILLER_0_1117
*101 FILLER_0_1121
*102 FILLER_0_113
*103 FILLER_0_1133
*104 FILLER_0_1145
*105 FILLER_0_1149
*106 FILLER_0_1161
*107 FILLER_0_1173
*108 FILLER_0_1177
*109 FILLER_0_1189
*110 FILLER_0_1201
*111 FILLER_0_1205
*112 FILLER_0_1217
*113 FILLER_0_1229
*114 FILLER_0_1233
*115 FILLER_0_1245
*116 FILLER_0_125
*117 FILLER_0_1257
*118 FILLER_0_1261
*119 FILLER_0_1273
*120 FILLER_0_1285
*121 FILLER_0_1289
*122 FILLER_0_1301
*123 FILLER_0_1313
*124 FILLER_0_1317
*125 FILLER_0_1329
*126 FILLER_0_1341
*127 FILLER_0_1345
*128 FILLER_0_1357
*129 FILLER_0_1364
*130 FILLER_0_137
*131 FILLER_0_1373
*132 FILLER_0_1385
*133 FILLER_0_1397
*134 FILLER_0_1401
*135 FILLER_0_141
*136 FILLER_0_1413
*137 FILLER_0_1425
*138 FILLER_0_1429
*139 FILLER_0_1441
*140 FILLER_0_1453
*141 FILLER_0_1457
*142 FILLER_0_1469
*143 FILLER_0_1481
*144 FILLER_0_1485
*145 FILLER_0_1497
*146 FILLER_0_1509
*147 FILLER_0_1513
*148 FILLER_0_1525
*149 FILLER_0_153
*150 FILLER_0_1537
*151 FILLER_0_1541
*152 FILLER_0_1553
*153 FILLER_0_1565
*154 FILLER_0_1569
*155 FILLER_0_1581
*156 FILLER_0_1593
*157 FILLER_0_1597
*158 FILLER_0_1609
*159 FILLER_0_1621
*160 FILLER_0_1625
*161 FILLER_0_1637
*162 FILLER_0_1649
*163 FILLER_0_165
*164 FILLER_0_1653
*165 FILLER_0_1665
*166 FILLER_0_1677
*167 FILLER_0_1681
*168 FILLER_0_169
*169 FILLER_0_1693
*170 FILLER_0_1705
*171 FILLER_0_1709
*172 FILLER_0_1721
*173 FILLER_0_1733
*174 FILLER_0_1737
*175 FILLER_0_1749
*176 FILLER_0_1761
*177 FILLER_0_1765
*178 FILLER_0_1777
*179 FILLER_0_1789
*180 FILLER_0_1793
*181 FILLER_0_18
*182 FILLER_0_1805
*183 FILLER_0_181
*184 FILLER_0_1817
*185 FILLER_0_1821
*186 FILLER_0_1827
*187 FILLER_0_1839
*188 FILLER_0_1847
*189 FILLER_0_1849
*190 FILLER_0_1861
*191 FILLER_0_1873
*192 FILLER_0_1877
*193 FILLER_0_1889
*194 FILLER_0_1901
*195 FILLER_0_1905
*196 FILLER_0_1917
*197 FILLER_0_1929
*198 FILLER_0_193
*199 FILLER_0_1933
*200 FILLER_0_1945
*201 FILLER_0_1957
*202 FILLER_0_1961
*203 FILLER_0_197
*204 FILLER_0_1973
*205 FILLER_0_1985
*206 FILLER_0_1989
*207 FILLER_0_2001
*208 FILLER_0_2013
*209 FILLER_0_2017
*210 FILLER_0_2029
*211 FILLER_0_2041
*212 FILLER_0_2045
*213 FILLER_0_2057
*214 FILLER_0_2069
*215 FILLER_0_2073
*216 FILLER_0_2085
*217 FILLER_0_209
*218 FILLER_0_2097
*219 FILLER_0_2101
*220 FILLER_0_2113
*221 FILLER_0_2125
*222 FILLER_0_2129
*223 FILLER_0_2141
*224 FILLER_0_2153
*225 FILLER_0_2157
*226 FILLER_0_2169
*227 FILLER_0_2181
*228 FILLER_0_2185
*229 FILLER_0_2197
*230 FILLER_0_2209
*231 FILLER_0_221
*232 FILLER_0_2213
*233 FILLER_0_2225
*234 FILLER_0_2237
*235 FILLER_0_2241
*236 FILLER_0_225
*237 FILLER_0_2253
*238 FILLER_0_2265
*239 FILLER_0_2269
*240 FILLER_0_2281
*241 FILLER_0_2288
*242 FILLER_0_2297
*243 FILLER_0_2309
*244 FILLER_0_2321
*245 FILLER_0_2325
*246 FILLER_0_2337
*247 FILLER_0_2349
*248 FILLER_0_2353
*249 FILLER_0_2365
*250 FILLER_0_237
*251 FILLER_0_2377
*252 FILLER_0_2381
*253 FILLER_0_2393
*254 FILLER_0_2405
*255 FILLER_0_2409
*256 FILLER_0_2421
*257 FILLER_0_2433
*258 FILLER_0_2437
*259 FILLER_0_2449
*260 FILLER_0_2461
*261 FILLER_0_2465
*262 FILLER_0_2477
*263 FILLER_0_2489
*264 FILLER_0_249
*265 FILLER_0_2493
*266 FILLER_0_2505
*267 FILLER_0_2517
*268 FILLER_0_2521
*269 FILLER_0_253
*270 FILLER_0_2533
*271 FILLER_0_2545
*272 FILLER_0_2549
*273 FILLER_0_2561
*274 FILLER_0_2573
*275 FILLER_0_2577
*276 FILLER_0_2589
*277 FILLER_0_26
*278 FILLER_0_2601
*279 FILLER_0_265
*280 FILLER_0_277
*281 FILLER_0_281
*282 FILLER_0_29
*283 FILLER_0_293
*284 FILLER_0_305
*285 FILLER_0_309
*286 FILLER_0_321
*287 FILLER_0_333
*288 FILLER_0_337
*289 FILLER_0_349
*290 FILLER_0_361
*291 FILLER_0_365
*292 FILLER_0_377
*293 FILLER_0_389
*294 FILLER_0_393
*295 FILLER_0_405
*296 FILLER_0_41
*297 FILLER_0_417
*298 FILLER_0_421
*299 FILLER_0_433
*300 FILLER_0_445
*301 FILLER_0_452
*302 FILLER_0_464
*303 FILLER_0_477
*304 FILLER_0_489
*305 FILLER_0_501
*306 FILLER_0_505
*307 FILLER_0_517
*308 FILLER_0_529
*309 FILLER_0_53
*310 FILLER_0_533
*311 FILLER_0_545
*312 FILLER_0_557
*313 FILLER_0_561
*314 FILLER_0_57
*315 FILLER_0_573
*316 FILLER_0_585
*317 FILLER_0_589
*318 FILLER_0_6
*319 FILLER_0_601
*320 FILLER_0_613
*321 FILLER_0_617
*322 FILLER_0_629
*323 FILLER_0_641
*324 FILLER_0_645
*325 FILLER_0_657
*326 FILLER_0_669
*327 FILLER_0_673
*328 FILLER_0_685
*329 FILLER_0_69
*330 FILLER_0_697
*331 FILLER_0_701
*332 FILLER_0_713
*333 FILLER_0_725
*334 FILLER_0_729
*335 FILLER_0_741
*336 FILLER_0_753
*337 FILLER_0_757
*338 FILLER_0_769
*339 FILLER_0_781
*340 FILLER_0_785
*341 FILLER_0_797
*342 FILLER_0_809
*343 FILLER_0_81
*344 FILLER_0_813
*345 FILLER_0_825
*346 FILLER_0_837
*347 FILLER_0_841
*348 FILLER_0_85
*349 FILLER_0_853
*350 FILLER_0_865
*351 FILLER_0_869
*352 FILLER_0_881
*353 FILLER_0_893
*354 FILLER_0_897
*355 FILLER_0_905
*356 FILLER_0_909
*357 FILLER_0_921
*358 FILLER_0_925
*359 FILLER_0_937
*360 FILLER_0_949
*361 FILLER_0_953
*362 FILLER_0_965
*363 FILLER_0_97
*364 FILLER_0_977
*365 FILLER_0_981
*366 FILLER_0_993
*367 FILLER_100_1005
*368 FILLER_100_1017
*369 FILLER_100_1029
*370 FILLER_100_1035
*371 FILLER_100_1037
*372 FILLER_100_1049
*373 FILLER_100_1061
*374 FILLER_100_1073
*375 FILLER_100_1085
*376 FILLER_100_109
*377 FILLER_100_1091
*378 FILLER_100_1093
*379 FILLER_100_1105
*380 FILLER_100_1117
*381 FILLER_100_1129
*382 FILLER_100_1141
*383 FILLER_100_1147
*384 FILLER_100_1149
*385 FILLER_100_1161
*386 FILLER_100_1173
*387 FILLER_100_1185
*388 FILLER_100_1197
*389 FILLER_100_1203
*390 FILLER_100_1205
*391 FILLER_100_121
*392 FILLER_100_1217
*393 FILLER_100_1229
*394 FILLER_100_1241
*395 FILLER_100_1253
*396 FILLER_100_1259
*397 FILLER_100_1261
*398 FILLER_100_1273
*399 FILLER_100_1285
*400 FILLER_100_1297
*401 FILLER_100_1309
*402 FILLER_100_1315
*403 FILLER_100_1317
*404 FILLER_100_1329
*405 FILLER_100_133
*406 FILLER_100_1341
*407 FILLER_100_1353
*408 FILLER_100_1365
*409 FILLER_100_1371
*410 FILLER_100_1373
*411 FILLER_100_1385
*412 FILLER_100_139
*413 FILLER_100_1397
*414 FILLER_100_1409
*415 FILLER_100_141
*416 FILLER_100_1421
*417 FILLER_100_1427
*418 FILLER_100_1429
*419 FILLER_100_1441
*420 FILLER_100_1453
*421 FILLER_100_1465
*422 FILLER_100_1477
*423 FILLER_100_1483
*424 FILLER_100_1485
*425 FILLER_100_1497
*426 FILLER_100_15
*427 FILLER_100_1509
*428 FILLER_100_1521
*429 FILLER_100_153
*430 FILLER_100_1533
*431 FILLER_100_1539
*432 FILLER_100_1541
*433 FILLER_100_1553
*434 FILLER_100_1565
*435 FILLER_100_1577
*436 FILLER_100_1589
*437 FILLER_100_1595
*438 FILLER_100_1597
*439 FILLER_100_1609
*440 FILLER_100_1621
*441 FILLER_100_1633
*442 FILLER_100_1645
*443 FILLER_100_165
*444 FILLER_100_1651
*445 FILLER_100_1653
*446 FILLER_100_1665
*447 FILLER_100_1677
*448 FILLER_100_1689
*449 FILLER_100_1701
*450 FILLER_100_1707
*451 FILLER_100_1709
*452 FILLER_100_1721
*453 FILLER_100_1733
*454 FILLER_100_1745
*455 FILLER_100_1757
*456 FILLER_100_1763
*457 FILLER_100_1765
*458 FILLER_100_177
*459 FILLER_100_1777
*460 FILLER_100_1789
*461 FILLER_100_1801
*462 FILLER_100_1813
*463 FILLER_100_1819
*464 FILLER_100_1821
*465 FILLER_100_1833
*466 FILLER_100_1845
*467 FILLER_100_1857
*468 FILLER_100_1869
*469 FILLER_100_1875
*470 FILLER_100_1877
*471 FILLER_100_1889
*472 FILLER_100_189
*473 FILLER_100_1901
*474 FILLER_100_1913
*475 FILLER_100_1925
*476 FILLER_100_1931
*477 FILLER_100_1933
*478 FILLER_100_1945
*479 FILLER_100_195
*480 FILLER_100_1957
*481 FILLER_100_1969
*482 FILLER_100_197
*483 FILLER_100_1981
*484 FILLER_100_1987
*485 FILLER_100_1989
*486 FILLER_100_2001
*487 FILLER_100_2013
*488 FILLER_100_2025
*489 FILLER_100_2037
*490 FILLER_100_2043
*491 FILLER_100_2045
*492 FILLER_100_2057
*493 FILLER_100_2069
*494 FILLER_100_2081
*495 FILLER_100_209
*496 FILLER_100_2093
*497 FILLER_100_2099
*498 FILLER_100_2101
*499 FILLER_100_2113
*500 FILLER_100_2125
*501 FILLER_100_2137
*502 FILLER_100_2149
*503 FILLER_100_2155
*504 FILLER_100_2157
*505 FILLER_100_2169
*506 FILLER_100_2181
*507 FILLER_100_2193
*508 FILLER_100_2205
*509 FILLER_100_221
*510 FILLER_100_2211
*511 FILLER_100_2213
*512 FILLER_100_2225
*513 FILLER_100_2237
*514 FILLER_100_2249
*515 FILLER_100_2261
*516 FILLER_100_2267
*517 FILLER_100_2269
*518 FILLER_100_2281
*519 FILLER_100_2293
*520 FILLER_100_2305
*521 FILLER_100_2317
*522 FILLER_100_2323
*523 FILLER_100_2325
*524 FILLER_100_233
*525 FILLER_100_2337
*526 FILLER_100_2349
*527 FILLER_100_2361
*528 FILLER_100_2373
*529 FILLER_100_2379
*530 FILLER_100_2381
*531 FILLER_100_2393
*532 FILLER_100_2405
*533 FILLER_100_2417
*534 FILLER_100_2429
*535 FILLER_100_2435
*536 FILLER_100_2437
*537 FILLER_100_2449
*538 FILLER_100_245
*539 FILLER_100_2461
*540 FILLER_100_2473
*541 FILLER_100_2485
*542 FILLER_100_2491
*543 FILLER_100_2493
*544 FILLER_100_2505
*545 FILLER_100_251
*546 FILLER_100_2517
*547 FILLER_100_2529
*548 FILLER_100_253
*549 FILLER_100_2541
*550 FILLER_100_2547
*551 FILLER_100_2549
*552 FILLER_100_2561
*553 FILLER_100_2573
*554 FILLER_100_2585
*555 FILLER_100_2593
*556 FILLER_100_2599
*557 FILLER_100_265
*558 FILLER_100_27
*559 FILLER_100_277
*560 FILLER_100_289
*561 FILLER_100_29
*562 FILLER_100_3
*563 FILLER_100_301
*564 FILLER_100_307
*565 FILLER_100_309
*566 FILLER_100_321
*567 FILLER_100_333
*568 FILLER_100_345
*569 FILLER_100_357
*570 FILLER_100_363
*571 FILLER_100_365
*572 FILLER_100_377
*573 FILLER_100_389
*574 FILLER_100_401
*575 FILLER_100_41
*576 FILLER_100_413
*577 FILLER_100_419
*578 FILLER_100_421
*579 FILLER_100_433
*580 FILLER_100_445
*581 FILLER_100_457
*582 FILLER_100_469
*583 FILLER_100_475
*584 FILLER_100_477
*585 FILLER_100_489
*586 FILLER_100_501
*587 FILLER_100_513
*588 FILLER_100_525
*589 FILLER_100_53
*590 FILLER_100_531
*591 FILLER_100_533
*592 FILLER_100_545
*593 FILLER_100_557
*594 FILLER_100_569
*595 FILLER_100_581
*596 FILLER_100_587
*597 FILLER_100_589
*598 FILLER_100_601
*599 FILLER_100_613
*600 FILLER_100_625
*601 FILLER_100_637
*602 FILLER_100_643
*603 FILLER_100_645
*604 FILLER_100_65
*605 FILLER_100_657
*606 FILLER_100_669
*607 FILLER_100_681
*608 FILLER_100_693
*609 FILLER_100_699
*610 FILLER_100_701
*611 FILLER_100_713
*612 FILLER_100_725
*613 FILLER_100_737
*614 FILLER_100_749
*615 FILLER_100_755
*616 FILLER_100_757
*617 FILLER_100_769
*618 FILLER_100_77
*619 FILLER_100_781
*620 FILLER_100_793
*621 FILLER_100_805
*622 FILLER_100_811
*623 FILLER_100_813
*624 FILLER_100_825
*625 FILLER_100_83
*626 FILLER_100_837
*627 FILLER_100_849
*628 FILLER_100_85
*629 FILLER_100_861
*630 FILLER_100_867
*631 FILLER_100_869
*632 FILLER_100_881
*633 FILLER_100_893
*634 FILLER_100_905
*635 FILLER_100_917
*636 FILLER_100_923
*637 FILLER_100_925
*638 FILLER_100_937
*639 FILLER_100_949
*640 FILLER_100_961
*641 FILLER_100_97
*642 FILLER_100_973
*643 FILLER_100_979
*644 FILLER_100_981
*645 FILLER_100_993
*646 FILLER_101_1001
*647 FILLER_101_1007
*648 FILLER_101_1009
*649 FILLER_101_1021
*650 FILLER_101_1033
*651 FILLER_101_1045
*652 FILLER_101_105
*653 FILLER_101_1057
*654 FILLER_101_1063
*655 FILLER_101_1065
*656 FILLER_101_1077
*657 FILLER_101_1089
*658 FILLER_101_1101
*659 FILLER_101_111
*660 FILLER_101_1113
*661 FILLER_101_1119
*662 FILLER_101_1121
*663 FILLER_101_113
*664 FILLER_101_1133
*665 FILLER_101_1145
*666 FILLER_101_1157
*667 FILLER_101_1169
*668 FILLER_101_1175
*669 FILLER_101_1177
*670 FILLER_101_1189
*671 FILLER_101_1201
*672 FILLER_101_1213
*673 FILLER_101_1225
*674 FILLER_101_1231
*675 FILLER_101_1233
*676 FILLER_101_1245
*677 FILLER_101_125
*678 FILLER_101_1257
*679 FILLER_101_1269
*680 FILLER_101_1281
*681 FILLER_101_1287
*682 FILLER_101_1289
*683 FILLER_101_1301
*684 FILLER_101_1313
*685 FILLER_101_1325
*686 FILLER_101_1337
*687 FILLER_101_1343
*688 FILLER_101_1345
*689 FILLER_101_1357
*690 FILLER_101_1369
*691 FILLER_101_137
*692 FILLER_101_1381
*693 FILLER_101_1393
*694 FILLER_101_1399
*695 FILLER_101_1401
*696 FILLER_101_1413
*697 FILLER_101_1425
*698 FILLER_101_1437
*699 FILLER_101_1449
*700 FILLER_101_1455
*701 FILLER_101_1457
*702 FILLER_101_1469
*703 FILLER_101_1481
*704 FILLER_101_149
*705 FILLER_101_1493
*706 FILLER_101_15
*707 FILLER_101_1505
*708 FILLER_101_1511
*709 FILLER_101_1513
*710 FILLER_101_1525
*711 FILLER_101_1537
*712 FILLER_101_1549
*713 FILLER_101_1561
*714 FILLER_101_1567
*715 FILLER_101_1569
*716 FILLER_101_1581
*717 FILLER_101_1593
*718 FILLER_101_1605
*719 FILLER_101_161
*720 FILLER_101_1617
*721 FILLER_101_1623
*722 FILLER_101_1625
*723 FILLER_101_1637
*724 FILLER_101_1649
*725 FILLER_101_1661
*726 FILLER_101_167
*727 FILLER_101_1673
*728 FILLER_101_1679
*729 FILLER_101_1681
*730 FILLER_101_169
*731 FILLER_101_1693
*732 FILLER_101_1705
*733 FILLER_101_1717
*734 FILLER_101_1729
*735 FILLER_101_1735
*736 FILLER_101_1737
*737 FILLER_101_1749
*738 FILLER_101_1761
*739 FILLER_101_1773
*740 FILLER_101_1785
*741 FILLER_101_1791
*742 FILLER_101_1793
*743 FILLER_101_1805
*744 FILLER_101_181
*745 FILLER_101_1817
*746 FILLER_101_1829
*747 FILLER_101_1841
*748 FILLER_101_1847
*749 FILLER_101_1849
*750 FILLER_101_1861
*751 FILLER_101_1873
*752 FILLER_101_1885
*753 FILLER_101_1897
*754 FILLER_101_1903
*755 FILLER_101_1905
*756 FILLER_101_1917
*757 FILLER_101_1929
*758 FILLER_101_193
*759 FILLER_101_1941
*760 FILLER_101_1953
*761 FILLER_101_1959
*762 FILLER_101_1961
*763 FILLER_101_1973
*764 FILLER_101_1985
*765 FILLER_101_1997
*766 FILLER_101_2009
*767 FILLER_101_2015
*768 FILLER_101_2017
*769 FILLER_101_2029
*770 FILLER_101_2041
*771 FILLER_101_205
*772 FILLER_101_2053
*773 FILLER_101_2065
*774 FILLER_101_2071
*775 FILLER_101_2073
*776 FILLER_101_2085
*777 FILLER_101_2097
*778 FILLER_101_2109
*779 FILLER_101_2121
*780 FILLER_101_2127
*781 FILLER_101_2129
*782 FILLER_101_2141
*783 FILLER_101_2153
*784 FILLER_101_2165
*785 FILLER_101_217
*786 FILLER_101_2177
*787 FILLER_101_2183
*788 FILLER_101_2185
*789 FILLER_101_2197
*790 FILLER_101_2209
*791 FILLER_101_2221
*792 FILLER_101_223
*793 FILLER_101_2233
*794 FILLER_101_2239
*795 FILLER_101_2241
*796 FILLER_101_225
*797 FILLER_101_2253
*798 FILLER_101_2265
*799 FILLER_101_2277
*800 FILLER_101_2289
*801 FILLER_101_2295
*802 FILLER_101_2297
*803 FILLER_101_2309
*804 FILLER_101_2321
*805 FILLER_101_2333
*806 FILLER_101_2345
*807 FILLER_101_2351
*808 FILLER_101_2353
*809 FILLER_101_2365
*810 FILLER_101_237
*811 FILLER_101_2377
*812 FILLER_101_2389
*813 FILLER_101_2401
*814 FILLER_101_2407
*815 FILLER_101_2409
*816 FILLER_101_2421
*817 FILLER_101_2433
*818 FILLER_101_2445
*819 FILLER_101_2457
*820 FILLER_101_2463
*821 FILLER_101_2465
*822 FILLER_101_2477
*823 FILLER_101_2489
*824 FILLER_101_249
*825 FILLER_101_2501
*826 FILLER_101_2513
*827 FILLER_101_2519
*828 FILLER_101_2521
*829 FILLER_101_2533
*830 FILLER_101_2545
*831 FILLER_101_2557
*832 FILLER_101_2569
*833 FILLER_101_2575
*834 FILLER_101_2577
*835 FILLER_101_2589
*836 FILLER_101_2601
*837 FILLER_101_261
*838 FILLER_101_27
*839 FILLER_101_273
*840 FILLER_101_279
*841 FILLER_101_281
*842 FILLER_101_293
*843 FILLER_101_3
*844 FILLER_101_305
*845 FILLER_101_317
*846 FILLER_101_329
*847 FILLER_101_335
*848 FILLER_101_337
*849 FILLER_101_349
*850 FILLER_101_361
*851 FILLER_101_373
*852 FILLER_101_385
*853 FILLER_101_39
*854 FILLER_101_391
*855 FILLER_101_393
*856 FILLER_101_405
*857 FILLER_101_417
*858 FILLER_101_429
*859 FILLER_101_441
*860 FILLER_101_447
*861 FILLER_101_449
*862 FILLER_101_461
*863 FILLER_101_473
*864 FILLER_101_485
*865 FILLER_101_497
*866 FILLER_101_503
*867 FILLER_101_505
*868 FILLER_101_51
*869 FILLER_101_517
*870 FILLER_101_529
*871 FILLER_101_541
*872 FILLER_101_55
*873 FILLER_101_553
*874 FILLER_101_559
*875 FILLER_101_561
*876 FILLER_101_57
*877 FILLER_101_573
*878 FILLER_101_585
*879 FILLER_101_597
*880 FILLER_101_609
*881 FILLER_101_615
*882 FILLER_101_617
*883 FILLER_101_629
*884 FILLER_101_641
*885 FILLER_101_653
*886 FILLER_101_665
*887 FILLER_101_671
*888 FILLER_101_673
*889 FILLER_101_685
*890 FILLER_101_69
*891 FILLER_101_697
*892 FILLER_101_709
*893 FILLER_101_721
*894 FILLER_101_727
*895 FILLER_101_729
*896 FILLER_101_741
*897 FILLER_101_753
*898 FILLER_101_765
*899 FILLER_101_777
*900 FILLER_101_783
*901 FILLER_101_785
*902 FILLER_101_797
*903 FILLER_101_809
*904 FILLER_101_81
*905 FILLER_101_821
*906 FILLER_101_833
*907 FILLER_101_839
*908 FILLER_101_841
*909 FILLER_101_853
*910 FILLER_101_865
*911 FILLER_101_877
*912 FILLER_101_889
*913 FILLER_101_895
*914 FILLER_101_897
*915 FILLER_101_909
*916 FILLER_101_921
*917 FILLER_101_93
*918 FILLER_101_933
*919 FILLER_101_945
*920 FILLER_101_951
*921 FILLER_101_953
*922 FILLER_101_965
*923 FILLER_101_977
*924 FILLER_101_989
*925 FILLER_102_1005
*926 FILLER_102_1017
*927 FILLER_102_1029
*928 FILLER_102_1035
*929 FILLER_102_1037
*930 FILLER_102_1049
*931 FILLER_102_1061
*932 FILLER_102_1073
*933 FILLER_102_1085
*934 FILLER_102_109
*935 FILLER_102_1091
*936 FILLER_102_1093
*937 FILLER_102_1105
*938 FILLER_102_1117
*939 FILLER_102_1129
*940 FILLER_102_1141
*941 FILLER_102_1147
*942 FILLER_102_1149
*943 FILLER_102_1161
*944 FILLER_102_1173
*945 FILLER_102_1185
*946 FILLER_102_1197
*947 FILLER_102_1203
*948 FILLER_102_1205
*949 FILLER_102_121
*950 FILLER_102_1217
*951 FILLER_102_1229
*952 FILLER_102_1241
*953 FILLER_102_1253
*954 FILLER_102_1259
*955 FILLER_102_1261
*956 FILLER_102_1273
*957 FILLER_102_1285
*958 FILLER_102_1297
*959 FILLER_102_1309
*960 FILLER_102_1315
*961 FILLER_102_1317
*962 FILLER_102_1329
*963 FILLER_102_133
*964 FILLER_102_1341
*965 FILLER_102_1353
*966 FILLER_102_1365
*967 FILLER_102_1371
*968 FILLER_102_1373
*969 FILLER_102_1385
*970 FILLER_102_139
*971 FILLER_102_1397
*972 FILLER_102_1409
*973 FILLER_102_141
*974 FILLER_102_1421
*975 FILLER_102_1427
*976 FILLER_102_1429
*977 FILLER_102_1441
*978 FILLER_102_1453
*979 FILLER_102_1465
*980 FILLER_102_1477
*981 FILLER_102_1483
*982 FILLER_102_1485
*983 FILLER_102_1497
*984 FILLER_102_15
*985 FILLER_102_1509
*986 FILLER_102_1521
*987 FILLER_102_153
*988 FILLER_102_1533
*989 FILLER_102_1539
*990 FILLER_102_1541
*991 FILLER_102_1553
*992 FILLER_102_1565
*993 FILLER_102_1577
*994 FILLER_102_1589
*995 FILLER_102_1595
*996 FILLER_102_1597
*997 FILLER_102_1609
*998 FILLER_102_1621
*999 FILLER_102_1633
*1000 FILLER_102_1645
*1001 FILLER_102_165
*1002 FILLER_102_1651
*1003 FILLER_102_1653
*1004 FILLER_102_1665
*1005 FILLER_102_1677
*1006 FILLER_102_1689
*1007 FILLER_102_1701
*1008 FILLER_102_1707
*1009 FILLER_102_1709
*1010 FILLER_102_1721
*1011 FILLER_102_1733
*1012 FILLER_102_1745
*1013 FILLER_102_1757
*1014 FILLER_102_1763
*1015 FILLER_102_1765
*1016 FILLER_102_177
*1017 FILLER_102_1777
*1018 FILLER_102_1789
*1019 FILLER_102_1801
*1020 FILLER_102_1813
*1021 FILLER_102_1819
*1022 FILLER_102_1821
*1023 FILLER_102_1833
*1024 FILLER_102_1845
*1025 FILLER_102_1857
*1026 FILLER_102_1869
*1027 FILLER_102_1875
*1028 FILLER_102_1877
*1029 FILLER_102_1889
*1030 FILLER_102_189
*1031 FILLER_102_1901
*1032 FILLER_102_1913
*1033 FILLER_102_1925
*1034 FILLER_102_1931
*1035 FILLER_102_1933
*1036 FILLER_102_1945
*1037 FILLER_102_195
*1038 FILLER_102_1957
*1039 FILLER_102_1969
*1040 FILLER_102_197
*1041 FILLER_102_1981
*1042 FILLER_102_1987
*1043 FILLER_102_1989
*1044 FILLER_102_2001
*1045 FILLER_102_2013
*1046 FILLER_102_2025
*1047 FILLER_102_2037
*1048 FILLER_102_2043
*1049 FILLER_102_2045
*1050 FILLER_102_2057
*1051 FILLER_102_2069
*1052 FILLER_102_2081
*1053 FILLER_102_209
*1054 FILLER_102_2093
*1055 FILLER_102_2099
*1056 FILLER_102_2101
*1057 FILLER_102_2113
*1058 FILLER_102_2125
*1059 FILLER_102_2137
*1060 FILLER_102_2149
*1061 FILLER_102_2155
*1062 FILLER_102_2157
*1063 FILLER_102_2169
*1064 FILLER_102_2181
*1065 FILLER_102_2193
*1066 FILLER_102_2205
*1067 FILLER_102_221
*1068 FILLER_102_2211
*1069 FILLER_102_2213
*1070 FILLER_102_2225
*1071 FILLER_102_2237
*1072 FILLER_102_2249
*1073 FILLER_102_2261
*1074 FILLER_102_2267
*1075 FILLER_102_2269
*1076 FILLER_102_2281
*1077 FILLER_102_2293
*1078 FILLER_102_2305
*1079 FILLER_102_2317
*1080 FILLER_102_2323
*1081 FILLER_102_2325
*1082 FILLER_102_233
*1083 FILLER_102_2337
*1084 FILLER_102_2349
*1085 FILLER_102_2361
*1086 FILLER_102_2373
*1087 FILLER_102_2379
*1088 FILLER_102_2381
*1089 FILLER_102_2393
*1090 FILLER_102_2405
*1091 FILLER_102_2417
*1092 FILLER_102_2429
*1093 FILLER_102_2435
*1094 FILLER_102_2437
*1095 FILLER_102_2449
*1096 FILLER_102_245
*1097 FILLER_102_2461
*1098 FILLER_102_2473
*1099 FILLER_102_2485
*1100 FILLER_102_2491
*1101 FILLER_102_2493
*1102 FILLER_102_2505
*1103 FILLER_102_251
*1104 FILLER_102_2517
*1105 FILLER_102_2529
*1106 FILLER_102_253
*1107 FILLER_102_2541
*1108 FILLER_102_2547
*1109 FILLER_102_2549
*1110 FILLER_102_2561
*1111 FILLER_102_2573
*1112 FILLER_102_2585
*1113 FILLER_102_2597
*1114 FILLER_102_265
*1115 FILLER_102_27
*1116 FILLER_102_277
*1117 FILLER_102_289
*1118 FILLER_102_29
*1119 FILLER_102_3
*1120 FILLER_102_301
*1121 FILLER_102_307
*1122 FILLER_102_309
*1123 FILLER_102_321
*1124 FILLER_102_333
*1125 FILLER_102_345
*1126 FILLER_102_357
*1127 FILLER_102_363
*1128 FILLER_102_365
*1129 FILLER_102_377
*1130 FILLER_102_389
*1131 FILLER_102_401
*1132 FILLER_102_41
*1133 FILLER_102_413
*1134 FILLER_102_419
*1135 FILLER_102_421
*1136 FILLER_102_433
*1137 FILLER_102_445
*1138 FILLER_102_457
*1139 FILLER_102_469
*1140 FILLER_102_475
*1141 FILLER_102_477
*1142 FILLER_102_489
*1143 FILLER_102_501
*1144 FILLER_102_513
*1145 FILLER_102_525
*1146 FILLER_102_53
*1147 FILLER_102_531
*1148 FILLER_102_533
*1149 FILLER_102_545
*1150 FILLER_102_557
*1151 FILLER_102_569
*1152 FILLER_102_581
*1153 FILLER_102_587
*1154 FILLER_102_589
*1155 FILLER_102_601
*1156 FILLER_102_613
*1157 FILLER_102_625
*1158 FILLER_102_637
*1159 FILLER_102_643
*1160 FILLER_102_645
*1161 FILLER_102_65
*1162 FILLER_102_657
*1163 FILLER_102_669
*1164 FILLER_102_681
*1165 FILLER_102_693
*1166 FILLER_102_699
*1167 FILLER_102_701
*1168 FILLER_102_713
*1169 FILLER_102_725
*1170 FILLER_102_737
*1171 FILLER_102_749
*1172 FILLER_102_755
*1173 FILLER_102_757
*1174 FILLER_102_769
*1175 FILLER_102_77
*1176 FILLER_102_781
*1177 FILLER_102_793
*1178 FILLER_102_805
*1179 FILLER_102_811
*1180 FILLER_102_813
*1181 FILLER_102_825
*1182 FILLER_102_83
*1183 FILLER_102_837
*1184 FILLER_102_849
*1185 FILLER_102_85
*1186 FILLER_102_861
*1187 FILLER_102_867
*1188 FILLER_102_869
*1189 FILLER_102_881
*1190 FILLER_102_893
*1191 FILLER_102_905
*1192 FILLER_102_917
*1193 FILLER_102_923
*1194 FILLER_102_925
*1195 FILLER_102_937
*1196 FILLER_102_949
*1197 FILLER_102_961
*1198 FILLER_102_97
*1199 FILLER_102_973
*1200 FILLER_102_979
*1201 FILLER_102_981
*1202 FILLER_102_993
*1203 FILLER_103_1001
*1204 FILLER_103_1007
*1205 FILLER_103_1009
*1206 FILLER_103_1021
*1207 FILLER_103_1033
*1208 FILLER_103_1045
*1209 FILLER_103_105
*1210 FILLER_103_1057
*1211 FILLER_103_1063
*1212 FILLER_103_1065
*1213 FILLER_103_1077
*1214 FILLER_103_1089
*1215 FILLER_103_1101
*1216 FILLER_103_111
*1217 FILLER_103_1113
*1218 FILLER_103_1119
*1219 FILLER_103_1121
*1220 FILLER_103_113
*1221 FILLER_103_1133
*1222 FILLER_103_1145
*1223 FILLER_103_1157
*1224 FILLER_103_1169
*1225 FILLER_103_1175
*1226 FILLER_103_1177
*1227 FILLER_103_1189
*1228 FILLER_103_1201
*1229 FILLER_103_1213
*1230 FILLER_103_1225
*1231 FILLER_103_1231
*1232 FILLER_103_1233
*1233 FILLER_103_1245
*1234 FILLER_103_125
*1235 FILLER_103_1257
*1236 FILLER_103_1269
*1237 FILLER_103_1281
*1238 FILLER_103_1287
*1239 FILLER_103_1289
*1240 FILLER_103_1301
*1241 FILLER_103_1313
*1242 FILLER_103_1325
*1243 FILLER_103_1337
*1244 FILLER_103_1343
*1245 FILLER_103_1345
*1246 FILLER_103_1357
*1247 FILLER_103_1369
*1248 FILLER_103_137
*1249 FILLER_103_1381
*1250 FILLER_103_1393
*1251 FILLER_103_1399
*1252 FILLER_103_1401
*1253 FILLER_103_1413
*1254 FILLER_103_1425
*1255 FILLER_103_1437
*1256 FILLER_103_1449
*1257 FILLER_103_1455
*1258 FILLER_103_1457
*1259 FILLER_103_1469
*1260 FILLER_103_1481
*1261 FILLER_103_149
*1262 FILLER_103_1493
*1263 FILLER_103_15
*1264 FILLER_103_1505
*1265 FILLER_103_1511
*1266 FILLER_103_1513
*1267 FILLER_103_1525
*1268 FILLER_103_1537
*1269 FILLER_103_1549
*1270 FILLER_103_1561
*1271 FILLER_103_1567
*1272 FILLER_103_1569
*1273 FILLER_103_1581
*1274 FILLER_103_1593
*1275 FILLER_103_1605
*1276 FILLER_103_161
*1277 FILLER_103_1617
*1278 FILLER_103_1623
*1279 FILLER_103_1625
*1280 FILLER_103_1637
*1281 FILLER_103_1649
*1282 FILLER_103_1661
*1283 FILLER_103_167
*1284 FILLER_103_1673
*1285 FILLER_103_1679
*1286 FILLER_103_1681
*1287 FILLER_103_169
*1288 FILLER_103_1693
*1289 FILLER_103_1705
*1290 FILLER_103_1717
*1291 FILLER_103_1729
*1292 FILLER_103_1735
*1293 FILLER_103_1737
*1294 FILLER_103_1749
*1295 FILLER_103_1761
*1296 FILLER_103_1773
*1297 FILLER_103_1785
*1298 FILLER_103_1791
*1299 FILLER_103_1793
*1300 FILLER_103_1805
*1301 FILLER_103_181
*1302 FILLER_103_1817
*1303 FILLER_103_1829
*1304 FILLER_103_1841
*1305 FILLER_103_1847
*1306 FILLER_103_1849
*1307 FILLER_103_1861
*1308 FILLER_103_1873
*1309 FILLER_103_1885
*1310 FILLER_103_1897
*1311 FILLER_103_1903
*1312 FILLER_103_1905
*1313 FILLER_103_1917
*1314 FILLER_103_1929
*1315 FILLER_103_193
*1316 FILLER_103_1941
*1317 FILLER_103_1953
*1318 FILLER_103_1959
*1319 FILLER_103_1961
*1320 FILLER_103_1973
*1321 FILLER_103_1985
*1322 FILLER_103_1997
*1323 FILLER_103_2009
*1324 FILLER_103_2015
*1325 FILLER_103_2017
*1326 FILLER_103_2029
*1327 FILLER_103_2041
*1328 FILLER_103_205
*1329 FILLER_103_2053
*1330 FILLER_103_2065
*1331 FILLER_103_2071
*1332 FILLER_103_2073
*1333 FILLER_103_2085
*1334 FILLER_103_2097
*1335 FILLER_103_2109
*1336 FILLER_103_2121
*1337 FILLER_103_2127
*1338 FILLER_103_2129
*1339 FILLER_103_2141
*1340 FILLER_103_2153
*1341 FILLER_103_2165
*1342 FILLER_103_217
*1343 FILLER_103_2177
*1344 FILLER_103_2183
*1345 FILLER_103_2185
*1346 FILLER_103_2197
*1347 FILLER_103_2209
*1348 FILLER_103_2221
*1349 FILLER_103_223
*1350 FILLER_103_2233
*1351 FILLER_103_2239
*1352 FILLER_103_2241
*1353 FILLER_103_225
*1354 FILLER_103_2253
*1355 FILLER_103_2265
*1356 FILLER_103_2277
*1357 FILLER_103_2289
*1358 FILLER_103_2295
*1359 FILLER_103_2297
*1360 FILLER_103_2309
*1361 FILLER_103_2321
*1362 FILLER_103_2333
*1363 FILLER_103_2345
*1364 FILLER_103_2351
*1365 FILLER_103_2353
*1366 FILLER_103_2365
*1367 FILLER_103_237
*1368 FILLER_103_2377
*1369 FILLER_103_2389
*1370 FILLER_103_2401
*1371 FILLER_103_2407
*1372 FILLER_103_2409
*1373 FILLER_103_2421
*1374 FILLER_103_2433
*1375 FILLER_103_2445
*1376 FILLER_103_2457
*1377 FILLER_103_2463
*1378 FILLER_103_2465
*1379 FILLER_103_2477
*1380 FILLER_103_2489
*1381 FILLER_103_249
*1382 FILLER_103_2501
*1383 FILLER_103_2513
*1384 FILLER_103_2519
*1385 FILLER_103_2521
*1386 FILLER_103_2533
*1387 FILLER_103_2545
*1388 FILLER_103_2557
*1389 FILLER_103_2569
*1390 FILLER_103_2575
*1391 FILLER_103_2577
*1392 FILLER_103_2589
*1393 FILLER_103_2601
*1394 FILLER_103_261
*1395 FILLER_103_27
*1396 FILLER_103_273
*1397 FILLER_103_279
*1398 FILLER_103_281
*1399 FILLER_103_293
*1400 FILLER_103_3
*1401 FILLER_103_305
*1402 FILLER_103_317
*1403 FILLER_103_329
*1404 FILLER_103_335
*1405 FILLER_103_337
*1406 FILLER_103_349
*1407 FILLER_103_361
*1408 FILLER_103_373
*1409 FILLER_103_385
*1410 FILLER_103_39
*1411 FILLER_103_391
*1412 FILLER_103_393
*1413 FILLER_103_405
*1414 FILLER_103_417
*1415 FILLER_103_429
*1416 FILLER_103_441
*1417 FILLER_103_447
*1418 FILLER_103_449
*1419 FILLER_103_461
*1420 FILLER_103_473
*1421 FILLER_103_485
*1422 FILLER_103_497
*1423 FILLER_103_503
*1424 FILLER_103_505
*1425 FILLER_103_51
*1426 FILLER_103_517
*1427 FILLER_103_529
*1428 FILLER_103_541
*1429 FILLER_103_55
*1430 FILLER_103_553
*1431 FILLER_103_559
*1432 FILLER_103_561
*1433 FILLER_103_57
*1434 FILLER_103_573
*1435 FILLER_103_585
*1436 FILLER_103_597
*1437 FILLER_103_609
*1438 FILLER_103_615
*1439 FILLER_103_617
*1440 FILLER_103_629
*1441 FILLER_103_641
*1442 FILLER_103_653
*1443 FILLER_103_665
*1444 FILLER_103_671
*1445 FILLER_103_673
*1446 FILLER_103_685
*1447 FILLER_103_69
*1448 FILLER_103_697
*1449 FILLER_103_709
*1450 FILLER_103_721
*1451 FILLER_103_727
*1452 FILLER_103_729
*1453 FILLER_103_741
*1454 FILLER_103_753
*1455 FILLER_103_765
*1456 FILLER_103_777
*1457 FILLER_103_783
*1458 FILLER_103_785
*1459 FILLER_103_797
*1460 FILLER_103_809
*1461 FILLER_103_81
*1462 FILLER_103_821
*1463 FILLER_103_833
*1464 FILLER_103_839
*1465 FILLER_103_841
*1466 FILLER_103_853
*1467 FILLER_103_865
*1468 FILLER_103_877
*1469 FILLER_103_889
*1470 FILLER_103_895
*1471 FILLER_103_897
*1472 FILLER_103_909
*1473 FILLER_103_921
*1474 FILLER_103_93
*1475 FILLER_103_933
*1476 FILLER_103_945
*1477 FILLER_103_951
*1478 FILLER_103_953
*1479 FILLER_103_965